     162
 i =      198, E =     -8792.2849341992
 Ni        12.5600833605       12.4390289211       12.4385890055
 Ni        12.7062290848       12.3757130552       10.0396642583
 Ni        12.5727946668       10.2778261695       11.5018150211
 Ni        12.6186205988       14.6465116022       13.4224966146
 Ni        12.4495259491       12.4852669820       14.9514315412
 Ni        14.6539705478       11.8024645084       11.5098391236
 Ni        10.4349308885       11.7681162695       11.3679043712
 Ni        14.5578689059       13.0868125297       13.6248103579
 Ni        10.4679778213       13.2280361035       13.4382655480
 Ni        13.8456221321       14.1058350208       11.2281540256
 Ni        11.3160559014       14.1120197749       11.2386478724
 Ni        13.8351223268       10.6301704358       13.5636317533
 Ni        11.1706788365       10.7760010038       13.5591041589
 Pt        12.7131055543       12.2801204541        7.3744556001
 Ni        12.6625308685       10.1681291959        9.0158553944
 Ni        14.7646406239       11.6928578959        8.9721784719
 Ni        10.4383363344       11.4197617987        8.8321989056
 Ni        14.1573799024       14.2964250358        8.6331474615
 Ni        11.3080329827       13.9602534106        8.8292537056
 Pt        12.2286441095        7.9486351549       10.2682527671
 Pt        16.8476360994       11.1081857209       10.3635761186
 Ni        14.6956112881        9.4339762382       10.4342038495
 Pt         6.9534755589       12.1771081030       10.3329396238
 Ni        10.0363100000        9.3690803566       10.4498242887
 Pt        15.1977293058       16.3299277548       10.0969615290
 Ni        16.0949369034       13.7025102903       10.4372592060
 Pt         9.3144413828       16.8923820392       10.6043537944
 Ni         9.2304001012       13.6377763683       10.1746103148
 Ni        12.5566988800       15.9472580620       10.1185535222
 Ni        13.8325849743        8.3034047718       12.4943372450
 Ni        16.1435278475       10.0225224698       12.7539288439
 Ni        10.9602157194        8.3704444248       12.5796400706
 Ni         8.8911723492       10.1547123120       12.6229188565
 Ni        13.9565666169       16.4424004777       12.3003258134
 Ni        16.1003552135       15.0269983808       12.7637189415
 Ni        11.3751806283       16.4344544491       12.3023978270
 Ni         9.1605014012       15.1058125883       12.4282375627
 Ni        16.9576872114       12.5021573473       12.9015732984
 Ni         8.2372349817       12.7612300638       12.4917240574
 Ni        14.4420581128       15.8356648527       14.6823215838
 Ni        10.4344653182       15.5602407885       14.5727760864
 Pt         9.3248424078        8.5121595879       14.9283634542
 Pt         7.9017151521       13.6941334743       16.1920261380
 Pt        12.2132114365       17.3893903447       15.2018385855
 Pt        16.1827636546       13.9862366174       15.4361097514
 Ni        15.9655535624       11.1797634239       15.2391777202
 Ni         8.8943559561       11.5724649334       14.7097313103
 Pt        14.8877082941        8.3150314840       14.9894890177
 Ni        12.2334398676        8.8334698876       14.6916965673
 Ni        12.6341467970       14.7636272817       15.9657918350
 Ni        10.8096420866       10.5859528996       16.1068927252
 Ni        10.4493876659       13.5534638288       16.1681840874
 Ni        14.1650989253       12.9040840960       16.7742270552
 Ni        13.4971954673       10.4153184083       16.1724437008
 Pt        12.1772306902       11.7701372077       18.0402265525
H 14.3225 10.0945 8.96399
H 11.6622 10.7702 7.8121
H 11.4996 11.0919 10.0893
H 16.0616 8.63618 9.62384
H 9.42287 12.0157 9.9595
H 9.64253 10.0239 9.0486
H 15.2874 13.9025 7.63844
H 13.7873 15.2566 7.29895
H 9.7207 14.0793 8.70224
H 11.1112 15.1849 9.88106
H 15.3238 8.87254 11.8778
H 9.80064 8.17977 11.4466
H 8.60484 9.67425 11.0407
H 16.3087 15.2506 11.0228
H 16.9223 13.75 11.848
H 8.73177 15.0597 10.7914
H 8.81895 11.458 11.6331
H 11.925 17.0415 8.97924
H 17.3197 8.69025 12.4798
H 12.4823 7.94986 13.3326
H 16.924 11.1273 13.8475
H 15.8395 9.73925 14.3938
H 10.9574 10.0894 11.9948
H 10.9231 7.84126 14.2571
H 7.86963 11.4013 13.3694
H 8.37902 9.96424 14.2677
H 14.4183 14.546 12.7704
H 12.6828 17.0462 11.4472
H 15.2561 16.4364 13.348
H 10.9136 14.7833 12.8013
H 10.8613 16.9797 13.7472
H 7.8214 14.293 12.7362
H 8.97433 15.6602 13.907
H 18.6248 12.4216 13.4433
H 8.89395 13.0845 13.9599
H 13.0815 16.3291 13.701
H 13.9142 13.5232 15.1718
H 11.512 13.9893 14.7743
H 9.40021 14.7656 15.5894
H 14.6182 11.6894 14.4589
H 9.33978 11.1401 16.1848
H 10.6182 11.9162 14.5481
H 12.0526 9.48693 16.2406
H 13.4314 8.64621 15.9219
H 11.4104 14.5271 16.9766
H 13.5696 14.3249 17.1879
H 11.4873 12.1937 16.3244
H 12.5251 10.642 14.56
H 14.8711 11.2926 16.5442
H 12.3275 11.7272 5.94555
H 12.7227 8.50843 8.7382
H 14.1607 11.4109 7.33894
H 16.4241 11.2072 8.74444
H 9.44176 12.1346 7.60971
H 13.4248 13.1915 6.30939
H 14.7599 17.5617 9.22123
H 11.4244 13.3835 7.2211
H 9.92875 17.5729 9.31392
H 13.8907 7.81129 10.8036
H 17.7414 9.84426 10.0493
H 10.6996 7.98352 9.58558
H 6.6256 11.0264 9.12286
H 17.4302 14.2665 9.48288
H 15.4441 15.6012 8.64986
H 7.72201 13.6051 9.61171
H 8.05005 16.774 9.66865
H 16.5578 17.0656 9.77062
H 8.76775 18.3375 10.664
H 12.3297 6.53217 9.55761
H 14.5371 7.00755 13.2527
H 18.2956 11.6049 9.97484
H 16.2332 7.58343 14.5874
H 11.6294 7.03911 11.5425
H 9.33753 8.54744 13.0632
H 5.86486 11.2241 10.9941
H 8.40315 7.39579 14.2929
H 15.0099 17.4109 11.4103
H 11.3904 18.6926 14.8939
H 17.6354 15.9972 12.5086
H 17.5467 14.4739 16.0679
H 10.629 17.6238 11.5738
H 12.2893 18.1235 16.5688
H 8.39778 16.4968 12.1058
H 17.4423 11.0773 11.9719
H 16.993 14.0322 13.8602
H 6.70826 12.946 11.7805
H 6.49636 13.8269 15.1596
H 13.4327 18.368 14.9113
H 15.8004 15.6422 15.6112
H 7.79277 14.9132 17.1989
H 10.7386 16.6073 15.8095
H 16.9416 12.5338 15.6745
H 16.8254 10.3747 16.5156
H 8.04333 8.60942 15.8369
H 7.67528 11.9984 15.6465
H 9.66155 7.29509 15.87
H 14.5536 6.8624 15.4728
H 13.4662 16.2163 16.035
H 13.5197 12.7359 18.3933
H 10.0008 9.2494 16.377
H 10.834 10.754 17.8842
H 9.08271 13.2546 17.2513
H 11.2289 12.804 18.7884
H 15.6342 13.8143 16.9944
H 12.2992 11.3389 19.5381
H 15.6096 8.34322 16.3794
H 13.2936 10.4254 17.765
