     55
 i =      165, E =     -8769.1014241223
 Ni        12.5066511093       12.4348278163       12.5563267379
 Ni        12.5667597093       12.5730216895       10.1744665114
 Ni        12.5526284086       10.3839380938       11.3624437707
 Ni        12.5597285287       14.5011823865       13.6892133222
 Ni        12.5686054031       12.3054191123       14.9438367873
 Ni        14.5425327860       11.8273974228       11.4937398666
 Ni        10.4866363492       11.8160942911       11.4983603493
 Ni        14.5115319173       13.0357849892       13.6461741997
 Ni        10.5051672099       13.1036428134       13.6264588787
 Ni        13.8297141621       14.1746649006       11.5713720610
 Ni        11.2998770834       14.2216775880       11.5639671971
 Ni        13.6985094629       10.6264797401       13.5585929581
 Ni        11.2319993413       10.7146763597       13.5764387157
 Pt        12.6891848901       12.7577350427        7.5127363228
 Ni        12.4932690619       10.4838561513        8.8413153415
 Ni        14.6500464206       11.8907287856        8.9783960073
 Ni        10.4894500705       11.9679954169        9.0396797116
 Ni        13.8467985800       14.4403201292        9.0982037030
 Ni        11.2223787542       14.3656504149        9.0358375465
 Pt        12.5537078635        8.1299538514        9.9381967875
 Pt        16.8308780038       11.0909190487       10.2926404481
 Ni        14.6357320594        9.6416276787       10.2292491072
 Pt         8.2274008550       11.1018895719       10.3019730887
 Ni        10.4373442585        9.6846287151       10.2356490474
 Pt        15.3511600284       16.1085742725       10.5477272604
 Ni        15.9545010986       13.5761374935       10.3759300150
 Pt         9.8279712414       16.1330382547       10.4167150071
 Ni         9.1778063248       13.6232518556       10.4208167516
 Ni        12.5661340972       16.0298091370       10.5013506187
 Ni        13.7057178265        8.4311729610       12.3144191238
 Ni        15.8473179599        9.9509815179       12.4982029072
 Ni        11.2089067498        8.5810192123       12.3736836475
 Ni         9.1039437582        9.9756572119       12.4985681361
 Ni        13.8467239174       16.4183836762       12.6929542854
 Ni        15.9598919704       14.8482869976       12.7037531271
 Ni        11.2901930605       16.4440276499       12.6497539890
 Ni         9.1720446560       14.9777383321       12.6366617776
 Ni        16.7094692525       12.4145967964       12.5749995253
 Ni         8.3575326782       12.4908028601       12.5545444131
 Ni        14.6382830829       15.2252553539       14.8923508304
 Ni        10.4339050012       15.2918996161       14.8459425069
 Pt         9.7483882535        8.8692882126       14.8011800954
 Pt         8.1963725773       13.8718339546       14.7512793227
 Pt        12.5607924680       16.8619474303       14.9587560370
 Pt        16.8282876953       13.6993112122       14.8898077903
 Ni        15.8297076948       11.2316043141       14.6976359031
 Ni         9.0942846756       11.3726259172       14.7528295842
 Pt        14.9742840834        8.5355103028       14.5775093920
 Ni        12.3775462028        8.7689040064       14.6228107787
 Ni        12.5060358340       14.4936485599       16.1855492950
 Ni        11.2288557887       10.5694753648       16.1003266805
 Ni        10.4951918322       13.0195225313       16.0483345563
 Ni        14.6444157019       12.9788366726       16.1517845463
 Ni        13.8286656902       10.4356939776       16.0325780951
 Pt        12.6717876094       12.1960262854       17.5922930520
