     213
 i =      165, E =     -8769.1014241223
 Ni        12.5066511093       12.4348278163       12.5563267379
 Ni        12.5667597093       12.5730216895       10.1744665114
 Ni        12.5526284086       10.3839380938       11.3624437707
 Ni        12.5597285287       14.5011823865       13.6892133222
 Ni        12.5686054031       12.3054191123       14.9438367873
 Ni        14.5425327860       11.8273974228       11.4937398666
 Ni        10.4866363492       11.8160942911       11.4983603493
 Ni        14.5115319173       13.0357849892       13.6461741997
 Ni        10.5051672099       13.1036428134       13.6264588787
 Ni        13.8297141621       14.1746649006       11.5713720610
 Ni        11.2998770834       14.2216775880       11.5639671971
 Ni        13.6985094629       10.6264797401       13.5585929581
 Ni        11.2319993413       10.7146763597       13.5764387157
 Pt        12.6891848901       12.7577350427        7.5127363228
 Ni        12.4932690619       10.4838561513        8.8413153415
 Ni        14.6500464206       11.8907287856        8.9783960073
 Ni        10.4894500705       11.9679954169        9.0396797116
 Ni        13.8467985800       14.4403201292        9.0982037030
 Ni        11.2223787542       14.3656504149        9.0358375465
 Pt        12.5537078635        8.1299538514        9.9381967875
 Pt        16.8308780038       11.0909190487       10.2926404481
 Ni        14.6357320594        9.6416276787       10.2292491072
 Pt         8.2274008550       11.1018895719       10.3019730887
 Ni        10.4373442585        9.6846287151       10.2356490474
 Pt        15.3511600284       16.1085742725       10.5477272604
 Ni        15.9545010986       13.5761374935       10.3759300150
 Pt         9.8279712414       16.1330382547       10.4167150071
 Ni         9.1778063248       13.6232518556       10.4208167516
 Ni        12.5661340972       16.0298091370       10.5013506187
 Ni        13.7057178265        8.4311729610       12.3144191238
 Ni        15.8473179599        9.9509815179       12.4982029072
 Ni        11.2089067498        8.5810192123       12.3736836475
 Ni         9.1039437582        9.9756572119       12.4985681361
 Ni        13.8467239174       16.4183836762       12.6929542854
 Ni        15.9598919704       14.8482869976       12.7037531271
 Ni        11.2901930605       16.4440276499       12.6497539890
 Ni         9.1720446560       14.9777383321       12.6366617776
 Ni        16.7094692525       12.4145967964       12.5749995253
 Ni         8.3575326782       12.4908028601       12.5545444131
 Ni        14.6382830829       15.2252553539       14.8923508304
 Ni        10.4339050012       15.2918996161       14.8459425069
 Pt         9.7483882535        8.8692882126       14.8011800954
 Pt         8.1963725773       13.8718339546       14.7512793227
 Pt        12.5607924680       16.8619474303       14.9587560370
 Pt        16.8282876953       13.6993112122       14.8898077903
 Ni        15.8297076948       11.2316043141       14.6976359031
 Ni         9.0942846756       11.3726259172       14.7528295842
 Pt        14.9742840834        8.5355103028       14.5775093920
 Ni        12.3775462028        8.7689040064       14.6228107787
 Ni        12.5060358340       14.4936485599       16.1855492950
 Ni        11.2288557887       10.5694753648       16.1003266805
 Ni        10.4951918322       13.0195225313       16.0483345563
 Ni        14.6444157019       12.9788366726       16.1517845463
 Ni        13.8286656902       10.4356939776       16.0325780951
 Pt        12.6717876094       12.1960262854       17.5922930520
H 13.705 11.0273 10.1012
H 9.83286 13.0128 8.737
H 11.2748 15.5258 8.65442
H 9.85118 8.65816 12.1854
H 16.921 13.4913 11.3006
H 8.18413 13.8243 11.4771
H 8.24328 11.2621 13.4722
H 14.185 15.1539 16.0314
H 10.8684 15.1382 15.9729
H 15.4444 12.0828 16.3693
H 9.94398 12.0624 16.4112
H 12.3356 8.45097 8.78146
H 12.9972 12.5356 8.52802
H 15.7356 10.4279 9.00896
H 11.1836 13.3503 7.24495
H 9.06132 10.7695 8.48878
H 7.7096 13.1655 9.48198
H 13.5891 15.7593 8.72706
H 15.4956 10.3252 11.5669
H 11.3994 16.9029 10.5105
H 13.9371 7.76451 14.4321
H 16.1547 9.90219 14.6546
H 15.2971 17.1707 11.4636
H 14.0787 16.9911 14.836
H 12.1028 16.1199 13.658
H 7.54726 13.8282 13.2437
H 8.91617 15.4416 14.0149
H 17.1054 12.6393 14.3839
H 11.3706 17.0719 16.8548
H 11.6611 8.19522 14.8735
H 13.8122 9.51095 16.3728
H 12.4607 13.6535 16.4256
H 13.5567 9.69665 7.8487
H 11.0821 9.87063 7.09935
H 10.2099 7.69199 7.14256
H 15.4677 11.7981 7.23219
H 16.2927 8.96249 6.83012
H 18.4891 12.444 6.50225
H 10.5709 9.87047 9.34661
H 8.60171 12.4325 6.63204
H 12.7828 16.7428 5.42052
H 15.8327 14.8197 9.00022
H 13.8165 14.4601 7.19234
H 8.27681 15.0703 6.71862
H 10.6076 15.0556 7.97963
H 15.6292 8.18956 10.6386
H 18.1249 7.46767 10.775
H 9.40567 5.94423 10.863
H 8.06349 7.83077 10.377
H 19.5474 14.8949 10.5796
H 19.7477 12.984 10.1419
H 5.8242 15.262 9.87445
H 4.55412 13.8405 10.243
H 13.815 19.5713 10.0301
H 11.3306 20.0544 10.542
H 16.5237 7.03717 12.9901
H 13.752 4.95906 14.3453
H 17.4633 9.16959 12.8987
H 19.3194 9.49025 14.7628
H 7.9463 6.52629 12.0494
H 11.2457 5.36098 15.3017
H 6.26241 9.32207 12.5946
H 17.0116 18.4864 12.7591
H 13.0356 18.1361 12.1515
H 14.4713 16.8854 13.6851
H 17.0928 13.9917 13.1432
H 16.2914 15.9277 14.3224
H 7.57196 19.0425 12.2965
H 9.37304 18.8021 14.3892
H 8.10012 16.0148 12.0779
H 10.0859 16.4174 13
H 18.2082 12.2974 12.4968
H 4.89457 10.4368 14.6005
H 15.8513 16.8731 18.0729
H 9.05373 16.8074 17.9807
H 17.9265 11.9616 19.0825
H 17.6923 10.1517 17.4886
H 10.0458 10.2649 15.4404
H 7.76628 11.532 19.2392
H 11.838 9.41312 16.5359
H 13.5373 7.26926 18.7966
H 11.1826 15.8245 18.6867
H 13.7689 15.5568 18.5144
H 9.72154 10.7689 18.8419
H 12.1555 9.33696 19.8026
H 13.7016 10.9537 17.723
H 12.0015 12.0669 5.78005
H 13.9653 12.723 5.65697
H 7.3356 11.7737 7.67273
H 16.75 17.1281 6.57461
H 9.58646 17.7851 7.42828
H 14.19 6.7262 7.58725
H 6.90032 10.0339 8.67931
H 16.8753 16.1841 10.5563
H 8.39718 15.8392 9.57205
H 13.5674 16.9316 10.4665
H 12.9559 5.95243 10.5838
H 17.8661 9.90811 10.0413
H 11.1208 6.81549 13.0648
H 7.20797 10.6999 10.7292
H 13.182 18.7692 14.7871
H 19.3059 15.2387 13.3746
H 11.2183 17.7783 14.8121
H 6.33529 14.7396 14.7147
H 18.4745 12.9679 15.3477
H 6.01759 12.7299 14.6878
H 13.7623 18.1928 16.9641
H 7.89736 15.3864 16.2935
H 17.1682 7.81801 15.3619
H 7.77616 10.2793 15.6105
H 9.86229 7.92302 14.3527
H 11.7549 13.1737 18.9302
H 8.72039 7.95014 17.6058
H 7.92409 12.0877 15.7554
H 16.7957 14.4089 17.546
H 15.3895 8.5358 16.1476
H 12.7973 8.23525 5.50946
H 15.9513 10.8952 5.004
H 8.46132 9.92377 5.72672
H 15.4965 15.098 5.39729
H 9.7206 15.8587 5.38519
H 16.5377 6.62906 8.83707
H 8.49171 6.49931 8.44075
H 18.8236 15.2288 7.47397
H 6.17756 14.4889 7.29723
H 12.7339 18.2867 8.08819
H 15.0374 4.46246 12.1239
H 19.7312 7.54921 13.1469
H 9.97416 4.47339 12.5339
H 5.54827 7.45419 12.5691
H 15.0617 20.4819 12.6951
H 19.0573 17.0453 12.1292
H 10.308 20.6225 12.8452
H 5.80247 16.6368 12.2665
H 20.6009 12.0347 12.8496
H 5.64115 12.2922 12.5335
H 16.7988 18.5394 16.0538
H 7.89474 18.3755 16.3071
H 19.6995 10.8939 16.7545
H 6.27332 10.1442 17.4251
H 12.5405 6.02539 16.8873
H 12.9101 17.0046 19.6732
H 9.79225 8.66851 19.8314
H 8.93233 14.2964 18.7536
H 15.8056 13.4093 19.2563
H 15.5585 9.51307 19.3013
H 12.3863 13.9991 5.45733
H 11.5298 6.78612 9.4025
H 17.6486 11.4981 9.17625
H 6.04859 11.963 9.27609
H 15.8135 17.1115 9.12211
H 9.26477 17.3483 10.4226
H 7.99016 7.62822 14.731
H 6.68876 13.6099 16.4283
H 11.7983 19.0967 16.3145
H 18.6156 14.2944 16.5753
H 15.4756 6.58919 15.5363
H 13.3217 12.0807 19.2647
