     179
 i =       41, E =     -8813.1567856554
 Ni        12.5164675640       12.4140565144       12.6082118920
 Ni        12.5177480528       12.4351130007       10.2044286668
 Ni        12.4187328907       10.2688749933       11.5339147177
 Ni        12.6187167575       14.5070324555       13.7958033329
 Ni        12.6618816288       12.2492784778       14.9936267594
 Ni        14.5924253644       11.7716463981       11.5558935481
 Ni        10.4466689453       11.7863526862       11.4820356556
 Ni        14.5936346998       13.1262191792       13.6253510693
 Ni        10.5010868900       13.1047675919       13.5597187324
 Ni        13.7916114690       14.1452716971       11.5560309934
 Ni        11.2916342183       14.1714546624       11.4952774296
 Ni        13.8779905276       10.6878930276       13.5899294758
 Ni        11.1575249683       10.7698076806       13.7014796048
 Pt        13.0944314737       13.1585255637        6.8236132013
 Ni        12.4888680319       10.0832424126        8.4330188596
 Ni        14.4384798670       11.7819132741        8.7641127823
 Ni        10.5996038392       11.5894537075        8.7822300742
 Ni        13.9238877708       14.2514651693        9.0264523023
 Ni        11.2993704165       14.0646326631        8.8726698011
 Pt        12.5926487555        7.8047876092       10.3398894701
 Pt        16.7396839293       11.1321518820       10.2386512612
 Ni        14.4895601617        9.5556673604       10.1594652274
 Pt         7.8205903153       11.8173939012        9.1178881059
 Ni        10.2548884492        9.5663563870       10.5675806869
 Pt        15.3543925147       16.0854332216       10.4251617542
 Ni        15.8310473818       13.5381074931       10.4034892292
 Pt         9.8847728675       16.1624337189       10.2696054908
 Ni         9.1645434549       13.6151784907       10.2388734168
 Ni        12.5998779374       15.8899200522       10.3309948878
 Ni        13.8444814668        8.4525773860       12.5739357559
 Ni        16.4384690058        9.9107811275       12.7149902044
 Ni        11.1547926477        8.5270647179       12.7596267446
 Ni         8.6557915078        9.9034570363       12.5788747272
 Ni        13.7409880235       16.3608419271       12.5586537545
 Ni        15.8934939035       14.9497355301       12.7682049209
 Ni        11.3736161725       16.5981191979       12.5201517410
 Ni         9.1306153381       14.8132635181       12.5546584225
 Ni        16.9276435360       12.5171048499       12.5533840915
 Ni         8.1912523329       12.3517181545       12.3079102622
 Ni        14.6780154187       15.5977089966       14.9319701125
 Ni        10.4993673530       15.4143612289       14.5326053362
 Pt         8.8067538184        8.9605095792       14.8480913825
 Pt         7.8232425238       14.0641370332       15.0129740029
 Pt        12.2394294284       17.2862132367       16.6243681457
 Pt        16.8973973765       13.7949299405       14.9122274976
 Ni        15.8594888528       11.3809018793       14.7220868883
 Ni         9.1157926126       11.6028441446       14.8842949840
 Pt        15.6235285474        8.3716364184       14.7418867006
 Ni        12.6370894781        9.1357939717       14.7972444044
 Ni        12.4792889140       14.7745600326       16.8036937019
 Ni        11.0959386095       10.6839140815       16.3308359981
 Ni        10.3519984066       13.3537702794       15.9642737267
 Ni        14.6159779977       13.2490030014       16.1253540246
 Ni        14.3735990599       10.3062312384       16.3755275500
 Pt        12.8088079967       12.1604982266       17.6716861434
H 13.5348 11.0181 10.3994
H 9.85999 13.2026 8.83444
H 9.61764 8.70734 11.9161
H 17.1382 13.5175 11.3166
H 8.20145 13.927 11.5038
H 8.31863 11.2238 13.517
H 14.1996 14.7994 16.4916
H 10.887 14.8729 16.1069
H 15.3442 11.7289 16.1616
H 9.84155 11.7741 16.451
H 12.5979 11.7197 8.75022
H 15.7701 10.5212 9.08542
H 11.4124 13.0777 7.5865
H 9.14772 10.8397 9.00467
H 7.69387 13.3783 9.82663
H 13.4658 15.7387 8.90831
H 15.4581 10.3241 11.2923
H 11.3785 17.0502 10.834
H 13.5707 7.96078 14.1613
H 16.5199 9.93852 14.4622
H 15.5826 17.3755 11.3343
H 12.1781 16.0128 13.9195
H 8.70105 15.3383 14.1211
H 17.1934 12.0148 14.2111
H 11.4334 16.596 15.5732
H 11.9395 12.9395 16.3407
H 14.1112 10.2354 8.26122
H 10.9264 10.5973 7.69217
H 14.9216 12.4063 7.5084
H 10.9539 10.0506 9.00623
H 13.2323 14.882 6.34497
H 15.5114 14.6841 9.25828
H 13.6758 14.746 7.50993
H 10.9554 15.1385 7.68285
H 14.7466 8.38541 11.2438
H 8.31053 6.24958 12.9569
H 19.5667 13.5924 10.3527
H 5.94963 14.5353 9.97681
H 4.9218 14.4563 10.2384
H 14.9386 9.34878 13.1841
H 17.6098 9.02234 12.4808
H 9.25086 7.04727 10.2697
H 7.13765 9.77407 12.844
H 12.6189 17.5532 12.7114
H 15.0311 16.496 13.5518
H 17.3422 14.0746 13.1693
H 16.3853 15.4115 14.4817
H 7.63898 18.2961 12.5616
H 8.14686 15.7291 12.0025
H 9.85721 16.2689 13.0337
H 17.4998 10.8689 17.2222
H 18.5199 11.2478 17.0151
H 10.045 10.2754 15.0803
H 10.4413 10.8435 17.8727
H 13.2843 8.35862 17.9428
H 10.5364 16.6119 17.9411
H 14.9077 17.2954 18.0968
H 13.7226 10.8369 17.8526
H 12.655 11.8122 5.98378
H 14.2814 12.8516 5.77901
H 7.12844 12.0239 7.65812
H 9.8413 16.9607 8.92971
H 13.8099 7.67949 9.26467
H 7.08838 10.4284 8.81464
H 16.9438 16.0691 10.5513
H 8.51705 15.6436 9.71612
H 13.7504 16.9969 10.5241
H 12.9978 6.44616 10.5058
H 17.8485 10.0093 10.0742
H 11.5684 7.3457 11.7044
H 7.32507 10.9432 11.8536
H 10.7554 17.6275 13.3678
H 6.61625 15.0307 14.8377
H 7.03269 12.9366 13.4358
H 13.5262 16.9868 16.0114
H 8.05886 15.0684 16.1701
H 17.0723 8.04945 15.2195
H 7.79143 9.70204 15.7272
H 10.3872 7.63884 13.8948
H 12.1989 13.9004 18.3165
H 10.5596 9.1019 16.5747
H 8.0388 12.3885 15.6692
H 15.1271 8.79135 16.2689
H 12.5022 8.79224 7.43795
H 16.0536 10.1869 6.71633
H 8.87233 11.0349 6.13146
H 15.9951 15.9296 6.87327
H 8.31385 14.8416 7.08509
H 16.9273 7.30475 9.60171
H 9.81766 8.24222 8.18493
H 18.0206 14.1448 7.29636
H 7.98916 13.9864 7.94381
H 12.8012 18.383 9.37526
H 14.1776 4.82425 13.4001
H 18.2541 9.25013 13.5809
H 8.67843 6.20732 11.9561
H 6.89173 7.94426 12.5527
H 15.6838 19.2774 12.5193
H 18.6545 16.0509 13.1045
H 10.7777 19.6083 11.9114
H 7.32432 17.3469 12.4298
H 18.9371 12.2209 12.7046
H 5.91748 11.4501 13.95
H 15.4578 16.7884 15.744
H 8.9888 17.9797 15.7896
H 7.98195 10.6165 17.5606
H 11.927 6.1077 15.8316
H 11.9599 14.9082 18.2071
H 11.0173 9.40196 19.0298
H 9.68101 14.1141 17.2027
H 16.5032 13.3828 17.7712
H 15.8106 10.1849 17.6341
H 12.2816 13.8009 5.59058
H 11.5336 6.98338 9.45176
H 17.8213 11.722 9.21064
H 7.39613 11.4159 10.9637
H 15.796 17.1242 9.31659
H 9.11362 17.5306 10.4787
H 7.75173 7.50909 14.9081
H 6.7294 13.4307 16.1973
H 12.359 18.8035 15.437
H 17.8047 13.6221 16.3052
H 15.6125 6.67259 15.2673
H 13.3636 12.1428 19.1749
