     213
 i =       41, E =     -8813.1567856554
 Ni        12.5164675640       12.4140565144       12.6082118920
 Ni        12.5177480528       12.4351130007       10.2044286668
 Ni        12.4187328907       10.2688749933       11.5339147177
 Ni        12.6187167575       14.5070324555       13.7958033329
 Ni        12.6618816288       12.2492784778       14.9936267594
 Ni        14.5924253644       11.7716463981       11.5558935481
 Ni        10.4466689453       11.7863526862       11.4820356556
 Ni        14.5936346998       13.1262191792       13.6253510693
 Ni        10.5010868900       13.1047675919       13.5597187324
 Ni        13.7916114690       14.1452716971       11.5560309934
 Ni        11.2916342183       14.1714546624       11.4952774296
 Ni        13.8779905276       10.6878930276       13.5899294758
 Ni        11.1575249683       10.7698076806       13.7014796048
 Pt        13.0944314737       13.1585255637        6.8236132013
 Ni        12.4888680319       10.0832424126        8.4330188596
 Ni        14.4384798670       11.7819132741        8.7641127823
 Ni        10.5996038392       11.5894537075        8.7822300742
 Ni        13.9238877708       14.2514651693        9.0264523023
 Ni        11.2993704165       14.0646326631        8.8726698011
 Pt        12.5926487555        7.8047876092       10.3398894701
 Pt        16.7396839293       11.1321518820       10.2386512612
 Ni        14.4895601617        9.5556673604       10.1594652274
 Pt         7.8205903153       11.8173939012        9.1178881059
 Ni        10.2548884492        9.5663563870       10.5675806869
 Pt        15.3543925147       16.0854332216       10.4251617542
 Ni        15.8310473818       13.5381074931       10.4034892292
 Pt         9.8847728675       16.1624337189       10.2696054908
 Ni         9.1645434549       13.6151784907       10.2388734168
 Ni        12.5998779374       15.8899200522       10.3309948878
 Ni        13.8444814668        8.4525773860       12.5739357559
 Ni        16.4384690058        9.9107811275       12.7149902044
 Ni        11.1547926477        8.5270647179       12.7596267446
 Ni         8.6557915078        9.9034570363       12.5788747272
 Ni        13.7409880235       16.3608419271       12.5586537545
 Ni        15.8934939035       14.9497355301       12.7682049209
 Ni        11.3736161725       16.5981191979       12.5201517410
 Ni         9.1306153381       14.8132635181       12.5546584225
 Ni        16.9276435360       12.5171048499       12.5533840915
 Ni         8.1912523329       12.3517181545       12.3079102622
 Ni        14.6780154187       15.5977089966       14.9319701125
 Ni        10.4993673530       15.4143612289       14.5326053362
 Pt         8.8067538184        8.9605095792       14.8480913825
 Pt         7.8232425238       14.0641370332       15.0129740029
 Pt        12.2394294284       17.2862132367       16.6243681457
 Pt        16.8973973765       13.7949299405       14.9122274976
 Ni        15.8594888528       11.3809018793       14.7220868883
 Ni         9.1157926126       11.6028441446       14.8842949840
 Pt        15.6235285474        8.3716364184       14.7418867006
 Ni        12.6370894781        9.1357939717       14.7972444044
 Ni        12.4792889140       14.7745600326       16.8036937019
 Ni        11.0959386095       10.6839140815       16.3308359981
 Ni        10.3519984066       13.3537702794       15.9642737267
 Ni        14.6159779977       13.2490030014       16.1253540246
 Ni        14.3735990599       10.3062312384       16.3755275500
 Pt        12.8088079967       12.1604982266       17.6716861434
  H        13.5348467268       11.0181155635       10.3994258643
  H         9.8599872762       13.2026378952        8.8344446403
  H        11.1470290054       15.6267568970        8.3552326535
  H         9.6176432071        8.7073363571       11.9160597342
  H        17.1381859092       13.5174796170       11.3165996006
  H         8.2014470407       13.9269784846       11.5038073764
  H         8.3186273618       11.2238096674       13.5170342577
  H        14.1996235430       14.7993813861       16.4916450970
  H        10.8870035315       14.8729301692       16.1068927597
  H        15.3442050140       11.7289148710       16.1616288565
  H         9.8415455754       11.7740982837       16.4510142087
  H        12.5180750483        8.4737451239        8.3326190027
  H        12.5978803424       11.7197013428        8.7502167560
  H        15.7701064214       10.5211594096        9.0854180690
  H        11.4123595752       13.0776956909        7.5864998548
  H         9.1477195130       10.8397363222        9.0046729443
  H         7.6938663611       13.3783400707        9.8266282332
  H        13.4658459136       15.7386767007        8.9083103113
  H        15.4580654786       10.3240814984       11.2922569945
  H        11.3785282105       17.0501561847       10.8339988123
  H        13.5706910014        7.9607791670       14.1613158972
  H        16.5199056902        9.9385162520       14.4621621677
  H        15.5825671191       17.3754836428       11.3342919826
  H        14.6206634556       17.1160734292       15.3152039593
  H        12.1780976640       16.0128472723       13.9195098484
  H         7.5826719741       13.6842269107       13.1127243200
  H         8.7010510993       15.3383132588       14.1211200658
  H        17.1934260072       12.0147608867       14.2110639556
  H        11.4333550294       16.5960427097       15.5731536657
  H        11.3186756682        7.6361319668       14.1651628419
  H        13.2285959930        8.7632261246       17.2558584491
  H        11.9394580377       12.9395473744       16.3406720100
  H        14.1111776745       10.2354236162        8.2612215088
  H        10.9264032620       10.5972895339        7.6921749097
  H         9.3284311159        7.7927302720        8.4156773815
  H        14.9216147232       12.4063372053        7.5084008188
  H        15.6341521006       10.0139140149        6.1404690010
  H        18.0350863340       13.5097677590        7.2346317505
  H        10.9538700628       10.0505721406        9.0062342843
  H         8.5748416792       11.2853049102        6.4372407665
  H        13.2323256174       14.8820491193        6.3449739942
  H        15.5114114676       14.6840517476        9.2582768572
  H        13.6757835468       14.7460260990        7.5099343489
  H         8.7577025301       15.5117833237        6.6471499704
  H        10.9554125776       15.1384947296        7.6828459506
  H        14.7465930579        8.3854075599       11.2438306151
  H        16.9084350765        7.6083380985       10.3807610716
  H         8.3105333642        6.2495837576       12.9568603903
  H         9.4736757323        6.4027756866       10.4955388604
  H        19.3391083004       14.3973226730       10.5860858004
  H        19.5666914356       13.5924281587       10.3527232618
  H         5.9496297425       14.5352844716        9.9768143623
  H         4.9218003134       14.4563155722       10.2384461472
  H        12.5831396979       18.9687115340        9.4707237316
  H        11.4926276225       19.7605374641       11.5781526787
  H        14.9385767581        9.3487755044       13.1840758485
  H        14.2272178660        5.5304102100       13.1575804291
  H        17.6097891651        9.0223365909       12.4807907710
  H        18.4669155316        9.2795722805       14.3737924721
  H         9.2508648370        7.0472675728       10.2697231352
  H        12.4697424959        6.1652816070       16.1284397824
  H         7.1376542102        9.7740698751       12.8440126598
  H        16.0329643247       18.8070698845       12.9111183654
  H        12.6188511520       17.5532099187       12.7113686046
  H        15.0310900920       16.4960138432       13.5518475843
  H        17.3421957536       14.0745552380       13.1692606928
  H        16.3853112755       15.4115006169       14.4817003553
  H         7.6389787001       18.2961201335       12.5616429769
  H         9.5275625878       18.0793986574       15.1546257375
  H         8.1468648550       15.7290655953       12.0025070813
  H         9.8572068099       16.2689232261       13.0336785429
  H        18.5191617820       11.8022564478       12.1911974283
  H         5.7361144187       10.8192778786       14.3393022081
  H        15.3731463425       17.2717818300       17.5393861196
  H         9.8539216282       16.4018101303       17.8848758902
  H        17.4998316309       10.8688619068       17.2221972869
  H        18.5199429945       11.2477796830       17.0150767991
  H        10.0449685565       10.2754241057       15.0802721960
  H        10.4413043380       10.8435125862       17.8726509410
  H        11.5273121452        9.0562790031       16.3564779058
  H        13.2842621921        8.3586216222       17.9427690999
  H        10.5363734746       16.6119443242       17.9410806735
  H        14.9077169163       17.2953676289       18.0967961105
  H         7.3385902022       10.9307680901       17.6889125602
  H        11.2008137651        8.6537684508       19.4178009867
  H        13.7226286372       10.8368812427       17.8525585675
  H        12.6550081150       11.8122250971        5.9837837197
  H        14.2813813683       12.8515909421        5.7790125680
  H         7.1284419846       12.0239451999        7.6581213008
  H        15.6141587768       15.4334789586        6.5289772200
  H         9.8413034685       16.9606758817        8.9297123850
  H        13.8098845293        7.6794865910        9.2646698408
  H         7.0883831686       10.4283582787        8.8146368448
  H        16.9438091090       16.0691302904       10.5512568827
  H         8.5170481836       15.6435909293        9.7161199452
  H        13.7503666534       16.9968678652       10.5241031865
  H        12.9978083868        6.4461641536       10.5058457081
  H        17.8484778143       10.0092599405       10.0741767722
  H        11.5683913049        7.3456993104       11.7044258687
  H         7.3250698851       10.9432147806       11.8536371198
  H        12.4338475146       18.7498285085       14.6679581224
  H        18.5407583671       16.0864249377       12.3531840115
  H        10.7553718426       17.6275149798       13.3677617048
  H         6.6162480260       15.0307425973       14.8376586499
  H        18.3801748847       13.5292689994       15.7002593765
  H         7.0326868669       12.9366462916       13.4357907539
  H        13.5262289270       16.9867603980       16.0113839974
  H         8.0588574211       15.0683567532       16.1700816883
  H        17.0722889882        8.0494529043       15.2195071080
  H         7.7914286473        9.7020361855       15.7272381496
  H        10.3872036004        7.6388444608       13.8948116133
  H        12.1989226692       13.9003775780       18.3164507761
  H        10.5595742399        9.1019034079       16.5747190353
  H         8.0387973723       12.3884506715       15.6691682950
  H        15.8152729515       13.4350892387       17.9797211928
  H        15.1270618970        8.7913477468       16.2689316364
  H        12.5022323228        8.7922424519        7.4379468270
  H        16.0535953610       10.1868630807        6.7163277447
  H         8.8723289449       11.0348768520        6.1314585356
  H        15.9950965923       15.9295720936        6.8732722818
  H         8.3138458091       14.8416090425        7.0850865480
  H        16.9272953691        7.3047539148        9.6017100349
  H         9.8176595008        8.2422167837        8.1849314453
  H        18.0206470377       14.1447761233        7.2963611259
  H         7.9891638593       13.9863543169        7.9438070575
  H        12.8012500011       18.3830199720        9.3752571030
  H        14.1775683902        4.8242498690       13.4001220059
  H        18.2541221025        9.2501288125       13.5809401203
  H         8.6784325944        6.2073236481       11.9561254092
  H         6.8917310700        7.9442589915       12.5526678975
  H        15.6837909162       19.2774202078       12.5193200491
  H        18.6545141171       16.0508624462       13.1044938917
  H        10.7776832753       19.6083222481       11.9113954838
  H         7.3243156882       17.3469236478       12.4298219417
  H        18.9371211004       12.2208812032       12.7045808360
  H         5.9174836133       11.4501016767       13.9500084699
  H        15.4577682626       16.7884318501       15.7440159662
  H         8.9888035132       17.9797091884       15.7895961753
  H        16.3154278955       10.5092303735       17.5074575253
  H         7.9819454305       10.6164664769       17.5606416595
  H        11.9269926556        6.1076958512       15.8315933507
  H        11.9598895023       14.9081948290       18.2070597501
  H        11.0172724840        9.4019617319       19.0298187647
  H         9.6810106719       14.1140873420       17.2027394641
  H        16.5031728313       13.3827945850       17.7712375877
  H        15.8105667155       10.1848883069       17.6341134399
  H        12.2816060687       13.8008652610        5.5905791799
  H        11.5335983570        6.9833797902        9.4517565438
  H        17.8212945297       11.7220263652        9.2106381983
  H         7.3961277074       11.4159428780       10.9636642225
  H        15.7960354901       17.1241667384        9.3165908545
  H         9.1136150095       17.5306199009       10.4787090426
  H         7.7517346003        7.5090907616       14.9080949898
  H         6.7293971395       13.4307090976       16.1973046784
  H        12.3590035671       18.8035222499       15.4370266905
  H        17.8047496485       13.6220839580       16.3051637876
  H        15.6125348310        6.6725920559       15.2672625537
  H        13.3636162735       12.1427510785       19.1748579597
