     55
 i =       41, E =     -8813.1567856554
 Ni        12.5164675640       12.4140565144       12.6082118920
 Ni        12.5177480528       12.4351130007       10.2044286668
 Ni        12.4187328907       10.2688749933       11.5339147177
 Ni        12.6187167575       14.5070324555       13.7958033329
 Ni        12.6618816288       12.2492784778       14.9936267594
 Ni        14.5924253644       11.7716463981       11.5558935481
 Ni        10.4466689453       11.7863526862       11.4820356556
 Ni        14.5936346998       13.1262191792       13.6253510693
 Ni        10.5010868900       13.1047675919       13.5597187324
 Ni        13.7916114690       14.1452716971       11.5560309934
 Ni        11.2916342183       14.1714546624       11.4952774296
 Ni        13.8779905276       10.6878930276       13.5899294758
 Ni        11.1575249683       10.7698076806       13.7014796048
 Pt        13.0944314737       13.1585255637        6.8236132013
 Ni        12.4888680319       10.0832424126        8.4330188596
 Ni        14.4384798670       11.7819132741        8.7641127823
 Ni        10.5996038392       11.5894537075        8.7822300742
 Ni        13.9238877708       14.2514651693        9.0264523023
 Ni        11.2993704165       14.0646326631        8.8726698011
 Pt        12.5926487555        7.8047876092       10.3398894701
 Pt        16.7396839293       11.1321518820       10.2386512612
 Ni        14.4895601617        9.5556673604       10.1594652274
 Pt         7.8205903153       11.8173939012        9.1178881059
 Ni        10.2548884492        9.5663563870       10.5675806869
 Pt        15.3543925147       16.0854332216       10.4251617542
 Ni        15.8310473818       13.5381074931       10.4034892292
 Pt         9.8847728675       16.1624337189       10.2696054908
 Ni         9.1645434549       13.6151784907       10.2388734168
 Ni        12.5998779374       15.8899200522       10.3309948878
 Ni        13.8444814668        8.4525773860       12.5739357559
 Ni        16.4384690058        9.9107811275       12.7149902044
 Ni        11.1547926477        8.5270647179       12.7596267446
 Ni         8.6557915078        9.9034570363       12.5788747272
 Ni        13.7409880235       16.3608419271       12.5586537545
 Ni        15.8934939035       14.9497355301       12.7682049209
 Ni        11.3736161725       16.5981191979       12.5201517410
 Ni         9.1306153381       14.8132635181       12.5546584225
 Ni        16.9276435360       12.5171048499       12.5533840915
 Ni         8.1912523329       12.3517181545       12.3079102622
 Ni        14.6780154187       15.5977089966       14.9319701125
 Ni        10.4993673530       15.4143612289       14.5326053362
 Pt         8.8067538184        8.9605095792       14.8480913825
 Pt         7.8232425238       14.0641370332       15.0129740029
 Pt        12.2394294284       17.2862132367       16.6243681457
 Pt        16.8973973765       13.7949299405       14.9122274976
 Ni        15.8594888528       11.3809018793       14.7220868883
 Ni         9.1157926126       11.6028441446       14.8842949840
 Pt        15.6235285474        8.3716364184       14.7418867006
 Ni        12.6370894781        9.1357939717       14.7972444044
 Ni        12.4792889140       14.7745600326       16.8036937019
 Ni        11.0959386095       10.6839140815       16.3308359981
 Ni        10.3519984066       13.3537702794       15.9642737267
 Ni        14.6159779977       13.2490030014       16.1253540246
 Ni        14.3735990599       10.3062312384       16.3755275500
 Pt        12.8088079967       12.1604982266       17.6716861434
